cgmes/cgmes-conversion/src/test/resources/cim14/nordic32.xiidm
<?xml version='1.0' encoding='UTF-8'?>
<iidm:network xmlns:iidm="http://www.powsybl.org/schema/iidm/1_2" id="Nordic32" caseDate="2019-04-01T15:09:55.299+02:00" forecastDistance="0" sourceFormat="CIM1">
    <iidm:substation id="_N1011____SS" name="N1011   _SS" country="NO" geographicalTags="_SGR_13">
        <iidm:voltageLevel id="_NG9______VL" name="NG9     _VL" nominalV="15.0" topologyKind="BUS_BREAKER">
            <iidm:busBreakerTopology>
                <iidm:bus id="_NG9______TN" v="15.0" angle="0.0"/>
            </iidm:busBreakerTopology>
            <iidm:generator id="_G9_______SM" name="G9      " energySource="OTHER" minP="-20000.0" maxP="20000.0" voltageRegulatorOn="true" targetP="565.8359985351562" targetV="15.0" targetQ="13.823800086975098" bus="_NG9______TN" connectableBus="_NG9______TN" p="-565.8359985351562" q="-13.823800086975098">
                <iidm:minMaxReactiveLimits minQ="-9999.990234375" maxQ="9999.990234375"/>
            </iidm:generator>
        </iidm:voltageLevel>
        <iidm:voltageLevel id="_N4011____VL" name="N4011   _VL" nominalV="400.0" topologyKind="BUS_BREAKER">
            <iidm:busBreakerTopology>
                <iidm:bus id="_N4011____TN" v="381.7569885253906" angle="-5.357859134674072"/>
            </iidm:busBreakerTopology>
        </iidm:voltageLevel>
        <iidm:voltageLevel id="_N1011____VL" name="N1011   _VL" nominalV="130.0" topologyKind="BUS_BREAKER">
            <iidm:busBreakerTopology>
                <iidm:bus id="_N1011____TN" v="118.47100067138672" angle="-4.263614177703857"/>
            </iidm:busBreakerTopology>
            <iidm:load id="_N1011____EC" name="N1011   " loadType="UNDEFINED" p0="200.0" q0="80.0" bus="_N1011____TN" connectableBus="_N1011____TN" p="200.0" q="80.0"/>
        </iidm:voltageLevel>
        <iidm:twoWindingsTransformer id="_NG9_____-N4011___-1_PT" name="NG9     -N4011   -1" r="0.0" x="24.000009536743164" g="0.0" b="0.0" ratedU1="15.0" ratedU2="380.9599914550781" bus1="_NG9______TN" connectableBus1="_NG9______TN" voltageLevelId1="_NG9______VL" bus2="_N4011____TN" connectableBus2="_N4011____TN" voltageLevelId2="_N4011____VL">
            <iidm:currentLimits1 permanentLimit="38490.0"/>
            <iidm:currentLimits2 permanentLimit="1443.3800048828125"/>
        </iidm:twoWindingsTransformer>
        <iidm:twoWindingsTransformer id="_N1011___-N4011___-1_PT" name="N1011   -N4011   -1" r="0.0" x="12.799967765808105" g="0.0" b="0.0" ratedU1="130.0" ratedU2="421.0400085449219" bus1="_N1011____TN" connectableBus1="_N1011____TN" voltageLevelId1="_N1011____VL" bus2="_N4011____TN" connectableBus2="_N4011____TN" voltageLevelId2="_N4011____VL">
            <iidm:currentLimits1 permanentLimit="4441.16015625"/>
            <iidm:currentLimits2 permanentLimit="1443.3800048828125"/>
        </iidm:twoWindingsTransformer>
    </iidm:substation>
    <iidm:substation id="_N1012____SS" name="N1012   _SS" country="NO" geographicalTags="_SGR_13">
        <iidm:voltageLevel id="_NG1______VL" name="NG1     _VL" nominalV="15.0" topologyKind="BUS_BREAKER">
            <iidm:busBreakerTopology>
                <iidm:bus id="_NG1______TN" v="16.025999069213867" angle="6.043698787689209"/>
            </iidm:busBreakerTopology>
            <iidm:generator id="_G1_______SM" name="G1      " energySource="OTHER" minP="-9999.990234375" maxP="9999.990234375" voltageRegulatorOn="true" targetP="600.0" targetV="16.025999069213867" targetQ="654.0869750976562" bus="_NG1______TN" connectableBus="_NG1______TN" p="-600.0" q="-654.0869750976562">
                <iidm:minMaxReactiveLimits minQ="-9999.990234375" maxQ="9999.990234375"/>
            </iidm:generator>
        </iidm:voltageLevel>
        <iidm:voltageLevel id="_NG10_____VL" name="NG10    _VL" nominalV="15.0" topologyKind="BUS_BREAKER">
            <iidm:busBreakerTopology>
                <iidm:bus id="_NG10_____TN" v="15.23550033569336" angle="3.7609670162200928"/>
            </iidm:busBreakerTopology>
            <iidm:generator id="_G10______SM" name="G10     " energySource="OTHER" minP="-9999.990234375" maxP="9999.990234375" voltageRegulatorOn="true" targetP="600.0" targetV="15.23550033569336" targetQ="8.778579711914062" bus="_NG10_____TN" connectableBus="_NG10_____TN" p="-600.0" q="-8.778579711914062">
                <iidm:minMaxReactiveLimits minQ="-9999.990234375" maxQ="9999.990234375"/>
            </iidm:generator>
        </iidm:voltageLevel>
        <iidm:voltageLevel id="_N4012____VL" name="N4012   _VL" nominalV="400.0" topologyKind="BUS_BREAKER">
            <iidm:busBreakerTopology>
                <iidm:bus id="_N4012____TN" v="389.052001953125" angle="-3.1062989234924316"/>
            </iidm:busBreakerTopology>
            <iidm:shunt id="_N4012____SC" name="N4012   " bPerSection="-6.249999860301614E-4" maximumSectionCount="1" currentSectionCount="1" voltageRegulatorOn="false" bus="_N4012____TN" connectableBus="_N4012____TN"/>
        </iidm:voltageLevel>
        <iidm:voltageLevel id="_N1012____VL" name="N1012   _VL" nominalV="130.0" topologyKind="BUS_BREAKER">
            <iidm:busBreakerTopology>
                <iidm:bus id="_N1012____TN" v="124.7229995727539" angle="-0.2573759853839874"/>
            </iidm:busBreakerTopology>
            <iidm:load id="_N1012____EC" name="N1012   " loadType="UNDEFINED" p0="300.0" q0="100.0" bus="_N1012____TN" connectableBus="_N1012____TN" p="300.0" q="100.0"/>
        </iidm:voltageLevel>
        <iidm:twoWindingsTransformer id="_NG1_____-N1012___-1_PT" name="NG1     -N1012   -1" r="0.0" x="3.168750286102295" g="0.0" b="0.0" ratedU1="15.0" ratedU2="130.0" bus1="_NG1______TN" connectableBus1="_NG1______TN" voltageLevelId1="_NG1______VL" bus2="_N1012____TN" connectableBus2="_N1012____TN" voltageLevelId2="_N1012____VL">
            <iidm:currentLimits1 permanentLimit="38490.0"/>
            <iidm:currentLimits2 permanentLimit="4441.16015625"/>
        </iidm:twoWindingsTransformer>
        <iidm:twoWindingsTransformer id="_NG10____-N4012___-1_PT" name="NG10    -N4012   -1" r="0.0" x="30.00002670288086" g="0.0" b="0.0" ratedU1="15.0" ratedU2="380.9599914550781" bus1="_NG10_____TN" connectableBus1="_NG10_____TN" voltageLevelId1="_NG10_____VL" bus2="_N4012____TN" connectableBus2="_N4012____TN" voltageLevelId2="_N4012____VL">
            <iidm:currentLimits1 permanentLimit="38490.0"/>
            <iidm:currentLimits2 permanentLimit="1443.3800048828125"/>
        </iidm:twoWindingsTransformer>
        <iidm:twoWindingsTransformer id="_N1012___-N4012___-1_PT" name="N1012   -N4012   -1" r="0.0" x="12.799967765808105" g="0.0" b="0.0" ratedU1="130.0" ratedU2="421.0400085449219" bus1="_N1012____TN" connectableBus1="_N1012____TN" voltageLevelId1="_N1012____VL" bus2="_N4012____TN" connectableBus2="_N4012____TN" voltageLevelId2="_N4012____VL">
            <iidm:currentLimits1 permanentLimit="4441.16015625"/>
            <iidm:currentLimits2 permanentLimit="1443.3800048828125"/>
        </iidm:twoWindingsTransformer>
    </iidm:substation>
    <iidm:substation id="_N1022____SS" name="N1022   _SS" country="NO" geographicalTags="_SGR_13">
        <iidm:voltageLevel id="_NG5______VL" name="NG5     _VL" nominalV="15.0" topologyKind="BUS_BREAKER">
            <iidm:busBreakerTopology>
                <iidm:bus id="_NG5______TN" v="15.440999984741211" angle="-9.349656105041504"/>
            </iidm:busBreakerTopology>
            <iidm:generator id="_G5_______SM" name="G5      " energySource="OTHER" minP="-9999.990234375" maxP="9999.990234375" voltageRegulatorOn="true" targetP="200.0" targetV="15.440999984741211" targetQ="226.20899963378906" bus="_NG5______TN" connectableBus="_NG5______TN" p="-200.0" q="-226.20899963378906">
                <iidm:minMaxReactiveLimits minQ="-9999.990234375" maxQ="9999.990234375"/>
            </iidm:generator>
        </iidm:voltageLevel>
        <iidm:voltageLevel id="_N4022____VL" name="N4022   _VL" nominalV="400.0" topologyKind="BUS_BREAKER">
            <iidm:busBreakerTopology>
                <iidm:bus id="_N4022____TN" v="361.79400634765625" angle="-20.041955947875977"/>
            </iidm:busBreakerTopology>
        </iidm:voltageLevel>
        <iidm:voltageLevel id="_N1022____VL" name="N1022   _VL" nominalV="130.0" topologyKind="BUS_BREAKER">
            <iidm:busBreakerTopology>
                <iidm:bus id="_N1022____TN" v="110.60600280761719" angle="-17.621028900146484"/>
            </iidm:busBreakerTopology>
            <iidm:load id="_N1022____EC" name="N1022   " loadType="UNDEFINED" p0="280.0" q0="95.0" bus="_N1022____TN" connectableBus="_N1022____TN" p="280.0" q="95.0"/>
            <iidm:shunt id="_N1022____SC" name="N1022   " bPerSection="0.002958579920232296" maximumSectionCount="1" currentSectionCount="1" voltageRegulatorOn="false" bus="_N1022____TN" connectableBus="_N1022____TN"/>
        </iidm:voltageLevel>
        <iidm:twoWindingsTransformer id="_NG5_____-N1022___-1_PT" name="NG5     -N1022   -1" r="0.0" x="10.140029907226562" g="0.0" b="0.0" ratedU1="15.0" ratedU2="123.81199645996094" bus1="_NG5______TN" connectableBus1="_NG5______TN" voltageLevelId1="_NG5______VL" bus2="_N1022____TN" connectableBus2="_N1022____TN" voltageLevelId2="_N1022____VL">
            <iidm:currentLimits1 permanentLimit="38490.0"/>
            <iidm:currentLimits2 permanentLimit="4441.16015625"/>
        </iidm:twoWindingsTransformer>
        <iidm:twoWindingsTransformer id="_N1022___-N4022___-1_PT" name="N1022   -N4022   -1" r="0.0" x="19.200050354003906" g="0.0" b="0.0" ratedU1="130.0" ratedU2="430.1199951171875" bus1="_N1022____TN" connectableBus1="_N1022____TN" voltageLevelId1="_N1022____VL" bus2="_N4022____TN" connectableBus2="_N4022____TN" voltageLevelId2="_N4022____VL">
            <iidm:currentLimits1 permanentLimit="4441.16015625"/>
            <iidm:currentLimits2 permanentLimit="1443.3800048828125"/>
        </iidm:twoWindingsTransformer>
    </iidm:substation>
    <iidm:substation id="_N1041____SS" name="N1041   _SS" country="NO" geographicalTags="_SGR_13">
        <iidm:voltageLevel id="_N1041____VL" name="N1041   _VL" nominalV="130.0" topologyKind="BUS_BREAKER">
            <iidm:busBreakerTopology>
                <iidm:bus id="_N1041____TN" v="110.677001953125" angle="-94.36389923095703"/>
            </iidm:busBreakerTopology>
            <iidm:load id="_N1041____EC" name="N1041   " loadType="UNDEFINED" p0="400.0" q0="180.0" bus="_N1041____TN" connectableBus="_N1041____TN" p="400.0" q="180.0"/>
            <iidm:shunt id="_N1041____SC" name="N1041   " bPerSection="0.011834300123155117" maximumSectionCount="1" currentSectionCount="1" voltageRegulatorOn="false" bus="_N1041____TN" connectableBus="_N1041____TN"/>
        </iidm:voltageLevel>
    </iidm:substation>
    <iidm:substation id="_N1044____SS" name="N1044   _SS" country="NO" geographicalTags="_SGR_13">
        <iidm:voltageLevel id="_N4044____VL" name="N4044   _VL" nominalV="400.0" topologyKind="BUS_BREAKER">
            <iidm:busBreakerTopology>
                <iidm:bus id="_N4044____TN" v="339.8810119628906" angle="-75.97722625732422"/>
            </iidm:busBreakerTopology>
        </iidm:voltageLevel>
        <iidm:voltageLevel id="_N1044____VL" name="N1044   _VL" nominalV="130.0" topologyKind="BUS_BREAKER">
            <iidm:busBreakerTopology>
                <iidm:bus id="_N1044____TN" v="112.66100311279297" angle="-80.51592254638672"/>
            </iidm:busBreakerTopology>
            <iidm:load id="_N1044____EC" name="N1044   " loadType="UNDEFINED" p0="840.0" q0="300.0" bus="_N1044____TN" connectableBus="_N1044____TN" p="840.0" q="300.0"/>
            <iidm:shunt id="_N1044____SC" name="N1044   " bPerSection="0.011834300123155117" maximumSectionCount="1" currentSectionCount="1" voltageRegulatorOn="false" bus="_N1044____TN" connectableBus="_N1044____TN"/>
        </iidm:voltageLevel>
        <iidm:twoWindingsTransformer id="_N1044___-N4044___-1_PT" name="N1044   -N4044   -1" r="0.0" x="15.999960899353027" g="0.0" b="0.0" ratedU1="130.0" ratedU2="388.3599853515625" bus1="_N1044____TN" connectableBus1="_N1044____TN" voltageLevelId1="_N1044____VL" bus2="_N4044____TN" connectableBus2="_N4044____TN" voltageLevelId2="_N4044____VL">
            <iidm:currentLimits1 permanentLimit="4441.16015625"/>
            <iidm:currentLimits2 permanentLimit="1443.3800048828125"/>
        </iidm:twoWindingsTransformer>
        <iidm:twoWindingsTransformer id="_N1044___-N4044___-2_PT" name="N1044   -N4044   -2" r="0.0" x="15.999960899353027" g="0.0" b="0.0" ratedU1="130.0" ratedU2="388.3599853515625" bus1="_N1044____TN" connectableBus1="_N1044____TN" voltageLevelId1="_N1044____VL" bus2="_N4044____TN" connectableBus2="_N4044____TN" voltageLevelId2="_N4044____VL">
            <iidm:currentLimits1 permanentLimit="4441.16015625"/>
            <iidm:currentLimits2 permanentLimit="1443.3800048828125"/>
        </iidm:twoWindingsTransformer>
    </iidm:substation>
    <iidm:substation id="_N1045____SS" name="N1045   _SS" country="NO" geographicalTags="_SGR_13">
        <iidm:voltageLevel id="_N4045____VL" name="N4045   _VL" nominalV="400.0" topologyKind="BUS_BREAKER">
            <iidm:busBreakerTopology>
                <iidm:bus id="_N4045____TN" v="345.0270080566406" angle="-82.18965148925781"/>
            </iidm:busBreakerTopology>
        </iidm:voltageLevel>
        <iidm:voltageLevel id="_N1045____VL" name="N1045   _VL" nominalV="130.0" topologyKind="BUS_BREAKER">
            <iidm:busBreakerTopology>
                <iidm:bus id="_N1045____TN" v="115.51200103759766" angle="-85.65843200683594"/>
            </iidm:busBreakerTopology>
            <iidm:load id="_N1045____EC" name="N1045   " loadType="UNDEFINED" p0="720.0" q0="230.0" bus="_N1045____TN" connectableBus="_N1045____TN" p="720.0" q="230.0"/>
            <iidm:shunt id="_N1045____SC" name="N1045   " bPerSection="0.011834300123155117" maximumSectionCount="1" currentSectionCount="1" voltageRegulatorOn="false" bus="_N1045____TN" connectableBus="_N1045____TN"/>
        </iidm:voltageLevel>
        <iidm:twoWindingsTransformer id="_N1045___-N4045___-1_PT" name="N1045   -N4045   -1" r="0.0" x="15.999998092651367" g="0.0" b="0.0" ratedU1="130.0" ratedU2="384.6000061035156" bus1="_N1045____TN" connectableBus1="_N1045____TN" voltageLevelId1="_N1045____VL" bus2="_N4045____TN" connectableBus2="_N4045____TN" voltageLevelId2="_N4045____VL">
            <iidm:currentLimits1 permanentLimit="4441.16015625"/>
            <iidm:currentLimits2 permanentLimit="1443.3800048828125"/>
        </iidm:twoWindingsTransformer>
        <iidm:twoWindingsTransformer id="_N1045___-N4045___-2_PT" name="N1045   -N4045   -2" r="0.0" x="15.999998092651367" g="0.0" b="0.0" ratedU1="130.0" ratedU2="384.6000061035156" bus1="_N1045____TN" connectableBus1="_N1045____TN" voltageLevelId1="_N1045____VL" bus2="_N4045____TN" connectableBus2="_N4045____TN" voltageLevelId2="_N4045____VL">
            <iidm:currentLimits1 permanentLimit="4441.16015625"/>
            <iidm:currentLimits2 permanentLimit="1443.3800048828125"/>
        </iidm:twoWindingsTransformer>
    </iidm:substation>
    <iidm:substation id="_N2031____SS" name="N2031   _SS" country="BE" geographicalTags="_SGR_22">
        <iidm:voltageLevel id="_NG12_____VL" name="NG12    _VL" nominalV="15.0" topologyKind="BUS_BREAKER">
            <iidm:busBreakerTopology>
                <iidm:bus id="_NG12_____TN" v="15.694499969482422" angle="-34.04362106323242"/>
            </iidm:busBreakerTopology>
            <iidm:generator id="_G12______SM" name="G12     " energySource="OTHER" minP="-9999.990234375" maxP="9999.990234375" voltageRegulatorOn="true" targetP="310.0" targetV="15.694499969482422" targetQ="279.2359924316406" bus="_NG12_____TN" connectableBus="_NG12_____TN" p="-310.0" q="-279.2359924316406">
                <iidm:minMaxReactiveLimits minQ="-9999.990234375" maxQ="9999.990234375"/>
            </iidm:generator>
        </iidm:voltageLevel>
        <iidm:voltageLevel id="_N4031____VL" name="N4031   _VL" nominalV="400.0" topologyKind="BUS_BREAKER">
            <iidm:busBreakerTopology>
                <iidm:bus id="_N4031____TN" v="354.5920104980469" angle="-42.69413757324219"/>
            </iidm:busBreakerTopology>
        </iidm:voltageLevel>
        <iidm:voltageLevel id="_N2031____VL" name="N2031   _VL" nominalV="220.0" topologyKind="BUS_BREAKER">
            <iidm:busBreakerTopology>
                <iidm:bus id="_N2031____TN" v="193.55999755859375" angle="-38.91523361206055"/>
            </iidm:busBreakerTopology>
            <iidm:load id="_N2031____EC" name="N2031   " loadType="UNDEFINED" p0="100.0" q0="30.0" bus="_N2031____TN" connectableBus="_N2031____TN" p="100.0" q="30.0"/>
        </iidm:voltageLevel>
        <iidm:twoWindingsTransformer id="_NG12____-N4031___-1_PT" name="NG12    -N4031   -1" r="0.0" x="68.5757827758789" g="0.0" b="0.0" ratedU1="15.0" ratedU2="380.9599914550781" bus1="_NG12_____TN" connectableBus1="_NG12_____TN" voltageLevelId1="_NG12_____VL" bus2="_N4031____TN" connectableBus2="_N4031____TN" voltageLevelId2="_N4031____VL">
            <iidm:currentLimits1 permanentLimit="38490.0"/>
            <iidm:currentLimits2 permanentLimit="1443.3800048828125"/>
        </iidm:twoWindingsTransformer>
        <iidm:twoWindingsTransformer id="_N2031___-N4031___-1_PT" name="N2031   -N4031   -1" r="0.0" x="19.200002670288086" g="0.0" b="0.0" ratedU1="220.0" ratedU2="400.0" bus1="_N2031____TN" connectableBus1="_N2031____TN" voltageLevelId1="_N2031____VL" bus2="_N4031____TN" connectableBus2="_N4031____TN" voltageLevelId2="_N4031____VL">
            <iidm:currentLimits1 permanentLimit="2624.320068359375"/>
            <iidm:currentLimits2 permanentLimit="1443.3800048828125"/>
        </iidm:twoWindingsTransformer>
    </iidm:substation>
    <iidm:substation id="_N4032____SS" name="N4032   _SS" country="DK" geographicalTags="_SGR_40">
        <iidm:voltageLevel id="_N4032____VL" name="N4032   _VL" nominalV="400.0" topologyKind="BUS_BREAKER">
            <iidm:busBreakerTopology>
                <iidm:bus id="_N4032____TN" v="352.6319885253906" angle="-49.30524444580078"/>
            </iidm:busBreakerTopology>
        </iidm:voltageLevel>
    </iidm:substation>
    <iidm:substation id="_N4043____SS" name="N4043   _SS" country="DK" geographicalTags="_SGR_40">
        <iidm:voltageLevel id="_N4043____VL" name="N4043   _VL" nominalV="400.0" topologyKind="BUS_BREAKER">
            <iidm:busBreakerTopology>
                <iidm:bus id="_N4043____TN" v="343.68499755859375" angle="-75.2749252319336"/>
            </iidm:busBreakerTopology>
            <iidm:load id="_N4043____EC" name="N4043   " loadType="UNDEFINED" p0="900.0" q0="303.20001220703125" bus="_N4043____TN" connectableBus="_N4043____TN" p="900.0" q="303.20001220703125"/>
            <iidm:shunt id="_N4043____SC" name="N4043   " bPerSection="0.0012499999720603228" maximumSectionCount="1" currentSectionCount="1" voltageRegulatorOn="false" bus="_N4043____TN" connectableBus="_N4043____TN"/>
        </iidm:voltageLevel>
    </iidm:substation>
    <iidm:substation id="_N4046____SS" name="N4046   _SS" country="DK" geographicalTags="_SGR_40">
        <iidm:voltageLevel id="_N4046____VL" name="N4046   _VL" nominalV="400.0" topologyKind="BUS_BREAKER">
            <iidm:busBreakerTopology>
                <iidm:bus id="_N4046____TN" v="346.0889892578125" angle="-76.19192504882812"/>
            </iidm:busBreakerTopology>
            <iidm:load id="_N4046____EC" name="N4046   " loadType="UNDEFINED" p0="700.0" q0="250.0" bus="_N4046____TN" connectableBus="_N4046____TN" p="700.0" q="250.0"/>
            <iidm:shunt id="_N4046____SC" name="N4046   " bPerSection="6.249999860301614E-4" maximumSectionCount="1" currentSectionCount="1" voltageRegulatorOn="false" bus="_N4046____TN" connectableBus="_N4046____TN"/>
        </iidm:voltageLevel>
    </iidm:substation>
    <iidm:substation id="_N4061____SS" name="N4061   _SS" country="DK" geographicalTags="_SGR_40">
        <iidm:voltageLevel id="_N4061____VL" name="N4061   _VL" nominalV="400.0" topologyKind="BUS_BREAKER">
            <iidm:busBreakerTopology>
                <iidm:bus id="_N4061____TN" v="354.6520080566406" angle="-67.66624450683594"/>
            </iidm:busBreakerTopology>
            <iidm:load id="_N4061____EC" name="N4061   " loadType="UNDEFINED" p0="500.0" q0="149.0" bus="_N4061____TN" connectableBus="_N4061____TN" p="500.0" q="149.0"/>
        </iidm:voltageLevel>
    </iidm:substation>
    <iidm:substation id="_NG11_____SS" name="NG11    _SS" country="FR" geographicalTags="_SGR_01">
        <iidm:voltageLevel id="_NG11_____VL" name="NG11    _VL" nominalV="15.0" topologyKind="BUS_BREAKER">
            <iidm:busBreakerTopology>
                <iidm:bus id="_NG11_____TN" v="15.316499710083008" angle="-30.300371170043945"/>
            </iidm:busBreakerTopology>
            <iidm:generator id="_G11______SM" name="G11     " energySource="OTHER" minP="-9999.990234375" maxP="9999.990234375" voltageRegulatorOn="true" targetP="250.0" targetV="15.316499710083008" targetQ="159.67799377441406" bus="_NG11_____TN" connectableBus="_NG11_____TN" p="-250.0" q="-159.67799377441406">
                <iidm:minMaxReactiveLimits minQ="-9999.990234375" maxQ="9999.990234375"/>
            </iidm:generator>
        </iidm:voltageLevel>
        <iidm:voltageLevel id="_N4021____VL" name="N4021   _VL" nominalV="400.0" topologyKind="BUS_BREAKER">
            <iidm:busBreakerTopology>
                <iidm:bus id="_N4021____TN" v="359.85101318359375" angle="-38.514652252197266"/>
            </iidm:busBreakerTopology>
        </iidm:voltageLevel>
        <iidm:twoWindingsTransformer id="_NG11____-N4021___-1_PT" name="NG11    -N4021   -1" r="0.0" x="79.99981689453125" g="0.0" b="0.0" ratedU1="15.0" ratedU2="380.9599914550781" bus1="_NG11_____TN" connectableBus1="_NG11_____TN" voltageLevelId1="_NG11_____VL" bus2="_N4021____TN" connectableBus2="_N4021____TN" voltageLevelId2="_N4021____VL">
            <iidm:currentLimits1 permanentLimit="38490.0"/>
            <iidm:currentLimits2 permanentLimit="1443.3800048828125"/>
        </iidm:twoWindingsTransformer>
    </iidm:substation>
    <iidm:substation id="_NG13_____SS" name="NG13    _SS" country="FR" geographicalTags="_SGR_01">
        <iidm:voltageLevel id="_NG13_____VL" name="NG13    _VL" nominalV="15.0" topologyKind="BUS_BREAKER">
            <iidm:busBreakerTopology>
                <iidm:bus id="_NG13_____TN" v="15.255000114440918" angle="-62.66741180419922"/>
            </iidm:busBreakerTopology>
            <iidm:generator id="_G13______SM" name="G13     " energySource="OTHER" minP="-9999.990234375" maxP="9999.990234375" voltageRegulatorOn="true" targetP="-0.0" targetV="15.255000114440918" targetQ="249.27999877929688" bus="_NG13_____TN" connectableBus="_NG13_____TN" p="0.0" q="-249.27999877929688">
                <iidm:minMaxReactiveLimits minQ="-9999.990234375" maxQ="9999.990234375"/>
            </iidm:generator>
        </iidm:voltageLevel>
        <iidm:voltageLevel id="_N4041____VL" name="N4041   _VL" nominalV="400.0" topologyKind="BUS_BREAKER">
            <iidm:busBreakerTopology>
                <iidm:bus id="_N4041____TN" v="353.125" angle="-62.66741180419922"/>
            </iidm:busBreakerTopology>
            <iidm:load id="_N4041____EC" name="N4041   " loadType="UNDEFINED" p0="540.0" q0="160.0" bus="_N4041____TN" connectableBus="_N4041____TN" p="540.0" q="160.0"/>
            <iidm:shunt id="_N4041____SC" name="N4041   " bPerSection="0.0012499999720603228" maximumSectionCount="1" currentSectionCount="1" voltageRegulatorOn="false" bus="_N4041____TN" connectableBus="_N4041____TN"/>
        </iidm:voltageLevel>
        <iidm:twoWindingsTransformer id="_NG13____-N4041___-1_PT" name="NG13    -N4041   -1" r="0.0" x="53.327980041503906" g="0.0" b="0.0" ratedU1="15.0" ratedU2="380.9599914550781" bus1="_NG13_____TN" connectableBus1="_NG13_____TN" voltageLevelId1="_NG13_____VL" bus2="_N4041____TN" connectableBus2="_N4041____TN" voltageLevelId2="_N4041____VL">
            <iidm:currentLimits1 permanentLimit="38490.0"/>
            <iidm:currentLimits2 permanentLimit="1443.3800048828125"/>
        </iidm:twoWindingsTransformer>
    </iidm:substation>
    <iidm:substation id="_NG14_____SS" name="NG14    _SS" country="FR" geographicalTags="_SGR_01">
        <iidm:voltageLevel id="_NG14_____VL" name="NG14    _VL" nominalV="15.0" topologyKind="BUS_BREAKER">
            <iidm:busBreakerTopology>
                <iidm:bus id="_NG14_____TN" v="15.680999755859375" angle="-57.85282897949219"/>
            </iidm:busBreakerTopology>
            <iidm:generator id="_G14______SM" name="G14     " energySource="OTHER" minP="-9999.990234375" maxP="9999.990234375" voltageRegulatorOn="true" targetP="630.0" targetV="15.680999755859375" targetQ="621.416015625" bus="_NG14_____TN" connectableBus="_NG14_____TN" p="-630.0" q="-621.416015625">
                <iidm:minMaxReactiveLimits minQ="-9999.990234375" maxQ="9999.990234375"/>
            </iidm:generator>
        </iidm:voltageLevel>
        <iidm:voltageLevel id="_N4042____VL" name="N4042   _VL" nominalV="400.0" topologyKind="BUS_BREAKER">
            <iidm:busBreakerTopology>
                <iidm:bus id="_N4042____TN" v="348.9949951171875" angle="-66.79387664794922"/>
            </iidm:busBreakerTopology>
            <iidm:load id="_N4042____EC" name="N4042   " loadType="UNDEFINED" p0="400.0" q0="149.39999389648438" bus="_N4042____TN" connectableBus="_N4042____TN" p="400.0" q="149.39999389648438"/>
        </iidm:voltageLevel>
        <iidm:twoWindingsTransformer id="_NG14____-N4042___-1_PT" name="NG14    -N4042   -1" r="0.0" x="34.288021087646484" g="0.0" b="0.0" ratedU1="15.0" ratedU2="380.9599914550781" bus1="_NG14_____TN" connectableBus1="_NG14_____TN" voltageLevelId1="_NG14_____VL" bus2="_N4042____TN" connectableBus2="_N4042____TN" voltageLevelId2="_N4042____VL">
            <iidm:currentLimits1 permanentLimit="38490.0"/>
            <iidm:currentLimits2 permanentLimit="1443.3800048828125"/>
        </iidm:twoWindingsTransformer>
    </iidm:substation>
    <iidm:substation id="_NG15_____SS" name="NG15    _SS" country="FR" geographicalTags="_SGR_01">
        <iidm:voltageLevel id="_NG15_____VL" name="NG15    _VL" nominalV="15.0" topologyKind="BUS_BREAKER">
            <iidm:busBreakerTopology>
                <iidm:bus id="_NG15_____TN" v="15.682499885559082" angle="-61.41239929199219"/>
            </iidm:busBreakerTopology>
            <iidm:generator id="_G15______SM" name="G15     " energySource="OTHER" minP="-9999.990234375" maxP="9999.990234375" voltageRegulatorOn="true" targetP="1080.0" targetV="15.682499885559082" targetQ="733.7080078125" bus="_NG15_____TN" connectableBus="_NG15_____TN" p="-1080.0" q="-733.7080078125">
                <iidm:minMaxReactiveLimits minQ="-9999.990234375" maxQ="9999.990234375"/>
            </iidm:generator>
        </iidm:voltageLevel>
        <iidm:voltageLevel id="_N4047____VL" name="N4047   _VL" nominalV="400.0" topologyKind="BUS_BREAKER">
            <iidm:busBreakerTopology>
                <iidm:bus id="_N4047____TN" v="365.49700927734375" angle="-69.94529724121094"/>
            </iidm:busBreakerTopology>
            <iidm:load id="_N4047____EC" name="N4047   " loadType="UNDEFINED" p0="100.0" q0="50.0" bus="_N4047____TN" connectableBus="_N4047____TN" p="100.0" q="50.0"/>
        </iidm:voltageLevel>
        <iidm:twoWindingsTransformer id="_NG15____-N4047___-1_PT" name="NG15    -N4047   -1" r="0.0" x="20.000019073486328" g="0.0" b="0.0" ratedU1="15.0" ratedU2="380.9599914550781" bus1="_NG15_____TN" connectableBus1="_NG15_____TN" voltageLevelId1="_NG15_____VL" bus2="_N4047____TN" connectableBus2="_N4047____TN" voltageLevelId2="_N4047____VL">
            <iidm:currentLimits1 permanentLimit="38490.0"/>
            <iidm:currentLimits2 permanentLimit="1443.3800048828125"/>
        </iidm:twoWindingsTransformer>
    </iidm:substation>
    <iidm:substation id="_NG16_____SS" name="NG16    _SS" country="FR" geographicalTags="_SGR_01">
        <iidm:voltageLevel id="_NG16_____VL" name="NG16    _VL" nominalV="15.0" topologyKind="BUS_BREAKER">
            <iidm:busBreakerTopology>
                <iidm:bus id="_NG16_____TN" v="15.796500205993652" angle="-77.35078430175781"/>
            </iidm:busBreakerTopology>
            <iidm:generator id="_G16______SM" name="G16     " energySource="OTHER" minP="-9999.990234375" maxP="9999.990234375" voltageRegulatorOn="true" targetP="600.0" targetV="15.796500205993652" targetQ="483.47100830078125" bus="_NG16_____TN" connectableBus="_NG16_____TN" p="-600.0" q="-483.47100830078125">
                <iidm:minMaxReactiveLimits minQ="-9999.990234375" maxQ="9999.990234375"/>
            </iidm:generator>
        </iidm:voltageLevel>
        <iidm:voltageLevel id="_N4051____VL" name="N4051   _VL" nominalV="400.0" topologyKind="BUS_BREAKER">
            <iidm:busBreakerTopology>
                <iidm:bus id="_N4051____TN" v="363.5039978027344" angle="-85.46057891845703"/>
            </iidm:busBreakerTopology>
            <iidm:load id="_N4051____EC" name="N4051   " loadType="UNDEFINED" p0="800.0" q0="302.3999938964844" bus="_N4051____TN" connectableBus="_N4051____TN" p="800.0" q="302.3999938964844"/>
            <iidm:shunt id="_N4051____SC" name="N4051   " bPerSection="6.249999860301614E-4" maximumSectionCount="1" currentSectionCount="1" voltageRegulatorOn="false" bus="_N4051____TN" connectableBus="_N4051____TN"/>
        </iidm:voltageLevel>
        <iidm:twoWindingsTransformer id="_NG16____-N4051___-1_PT" name="NG16    -N4051   -1" r="0.0" x="34.288021087646484" g="0.0" b="0.0" ratedU1="15.0" ratedU2="380.9599914550781" bus1="_NG16_____TN" connectableBus1="_NG16_____TN" voltageLevelId1="_NG16_____VL" bus2="_N4051____TN" connectableBus2="_N4051____TN" voltageLevelId2="_N4051____VL">
            <iidm:currentLimits1 permanentLimit="38490.0"/>
            <iidm:currentLimits2 permanentLimit="1443.3800048828125"/>
        </iidm:twoWindingsTransformer>
    </iidm:substation>
    <iidm:substation id="_NG17_____SS" name="NG17    _SS" country="FR" geographicalTags="_SGR_01">
        <iidm:voltageLevel id="_NG17_____VL" name="NG17    _VL" nominalV="15.0" topologyKind="BUS_BREAKER">
            <iidm:busBreakerTopology>
                <iidm:bus id="_NG17_____TN" v="15.137999534606934" angle="-54.26876449584961"/>
            </iidm:busBreakerTopology>
            <iidm:generator id="_G17______SM" name="G17     " energySource="OTHER" minP="-9999.990234375" maxP="9999.990234375" voltageRegulatorOn="true" targetP="530.0" targetV="15.137999534606934" targetQ="189.6269989013672" bus="_NG17_____TN" connectableBus="_NG17_____TN" p="-530.0" q="-189.6269989013672">
                <iidm:minMaxReactiveLimits minQ="-9999.990234375" maxQ="9999.990234375"/>
            </iidm:generator>
        </iidm:voltageLevel>
        <iidm:voltageLevel id="_N4062____VL" name="N4062   _VL" nominalV="400.0" topologyKind="BUS_BREAKER">
            <iidm:busBreakerTopology>
                <iidm:bus id="_N4062____TN" v="368.8800048828125" angle="-62.865760803222656"/>
            </iidm:busBreakerTopology>
            <iidm:load id="_N4062____EC" name="N4062   " loadType="UNDEFINED" p0="300.0" q0="100.0" bus="_N4062____TN" connectableBus="_N4062____TN" p="300.0" q="100.0"/>
        </iidm:voltageLevel>
        <iidm:twoWindingsTransformer id="_NG17____-N4062___-1_PT" name="NG17    -N4062   -1" r="0.0" x="39.99997329711914" g="0.0" b="0.0" ratedU1="15.0" ratedU2="380.9599914550781" bus1="_NG17_____TN" connectableBus1="_NG17_____TN" voltageLevelId1="_NG17_____VL" bus2="_N4062____TN" connectableBus2="_N4062____TN" voltageLevelId2="_N4062____VL">
            <iidm:currentLimits1 permanentLimit="38490.0"/>
            <iidm:currentLimits2 permanentLimit="1443.3800048828125"/>
        </iidm:twoWindingsTransformer>
    </iidm:substation>
    <iidm:substation id="_NG18_____SS" name="NG18    _SS" country="FR" geographicalTags="_SGR_01">
        <iidm:voltageLevel id="_NG18_____VL" name="NG18    _VL" nominalV="15.0" topologyKind="BUS_BREAKER">
            <iidm:busBreakerTopology>
                <iidm:bus id="_NG18_____TN" v="15.46049976348877" angle="-49.925662994384766"/>
            </iidm:busBreakerTopology>
            <iidm:generator id="_G18______SM" name="G18     " energySource="OTHER" minP="-9999.990234375" maxP="9999.990234375" voltageRegulatorOn="true" targetP="1060.0" targetV="15.46049976348877" targetQ="443.7669982910156" bus="_NG18_____TN" connectableBus="_NG18_____TN" p="-1060.0" q="-443.7669982910156">
                <iidm:minMaxReactiveLimits minQ="-9999.990234375" maxQ="9999.990234375"/>
            </iidm:generator>
        </iidm:voltageLevel>
        <iidm:voltageLevel id="_N4063____VL" name="N4063   _VL" nominalV="400.0" topologyKind="BUS_BREAKER">
            <iidm:busBreakerTopology>
                <iidm:bus id="_N4063____TN" v="373.9700012207031" angle="-58.22666931152344"/>
            </iidm:busBreakerTopology>
            <iidm:load id="_N4063____EC" name="N4063   " loadType="UNDEFINED" p0="590.0" q0="300.0" bus="_N4063____TN" connectableBus="_N4063____TN" p="590.0" q="300.0"/>
        </iidm:voltageLevel>
        <iidm:twoWindingsTransformer id="_NG18____-N4063___-1_PT" name="NG18    -N4063   -1" r="0.0" x="20.000019073486328" g="0.0" b="0.0" ratedU1="15.0" ratedU2="380.9599914550781" bus1="_NG18_____TN" connectableBus1="_NG18_____TN" voltageLevelId1="_NG18_____VL" bus2="_N4063____TN" connectableBus2="_N4063____TN" voltageLevelId2="_N4063____VL">
            <iidm:currentLimits1 permanentLimit="38490.0"/>
            <iidm:currentLimits2 permanentLimit="1443.3800048828125"/>
        </iidm:twoWindingsTransformer>
    </iidm:substation>
    <iidm:substation id="_NG19_____SS" name="NG19    _SS" country="FR" geographicalTags="_SGR_01">
        <iidm:voltageLevel id="_NG19_____VL" name="NG19    _VL" nominalV="15.0" topologyKind="BUS_BREAKER">
            <iidm:busBreakerTopology>
                <iidm:bus id="_NG19_____TN" v="15.449999809265137" angle="3.17626690864563"/>
            </iidm:busBreakerTopology>
            <iidm:generator id="_G19______SM" name="G19     " energySource="OTHER" minP="-9999.990234375" maxP="9999.990234375" voltageRegulatorOn="true" targetP="300.0" targetV="15.449999809265137" targetQ="82.3125991821289" bus="_NG19_____TN" connectableBus="_NG19_____TN" p="-300.0" q="-82.3125991821289">
                <iidm:minMaxReactiveLimits minQ="-9999.990234375" maxQ="9999.990234375"/>
            </iidm:generator>
        </iidm:voltageLevel>
        <iidm:voltageLevel id="_N4071____VL" name="N4071   _VL" nominalV="400.0" topologyKind="BUS_BREAKER">
            <iidm:busBreakerTopology>
                <iidm:bus id="_N4071____TN" v="384.0769958496094" angle="-2.306674003601074"/>
            </iidm:busBreakerTopology>
            <iidm:load id="_N4071____EC" name="N4071   " loadType="UNDEFINED" p0="300.0" q0="100.0" bus="_N4071____TN" connectableBus="_N4071____TN" p="300.0" q="100.0"/>
            <iidm:shunt id="_N4071____SC" name="N4071   " bPerSection="-0.0024999999441206455" maximumSectionCount="1" currentSectionCount="1" voltageRegulatorOn="false" bus="_N4071____TN" connectableBus="_N4071____TN"/>
        </iidm:voltageLevel>
        <iidm:twoWindingsTransformer id="_NG19____-N4071___-1_PT" name="NG19    -N4071   -1" r="0.0" x="48.00001907348633" g="0.0" b="0.0" ratedU1="15.0" ratedU2="380.9599914550781" bus1="_NG19_____TN" connectableBus1="_NG19_____TN" voltageLevelId1="_NG19_____VL" bus2="_N4071____TN" connectableBus2="_N4071____TN" voltageLevelId2="_N4071____VL">
            <iidm:currentLimits1 permanentLimit="38490.0"/>
            <iidm:currentLimits2 permanentLimit="1443.3800048828125"/>
        </iidm:twoWindingsTransformer>
    </iidm:substation>
    <iidm:substation id="_NG20_____SS" name="NG20    _SS" country="FR" geographicalTags="_SGR_01">
        <iidm:voltageLevel id="_NG20_____VL" name="NG20    _VL" nominalV="15.0" topologyKind="BUS_BREAKER">
            <iidm:busBreakerTopology>
                <iidm:bus id="_NG20_____TN" v="15.27750015258789" angle="3.315453052520752"/>
            </iidm:busBreakerTopology>
            <iidm:generator id="_G20______SM" name="G20     " energySource="OTHER" minP="-9999.990234375" maxP="9999.990234375" voltageRegulatorOn="true" targetP="2132.5" targetV="15.27750015258789" targetQ="375.85101318359375" bus="_NG20_____TN" connectableBus="_NG20_____TN" p="-2132.5" q="-375.85101318359375">
                <iidm:minMaxReactiveLimits minQ="-9999.990234375" maxQ="9999.990234375"/>
            </iidm:generator>
        </iidm:voltageLevel>
        <iidm:voltageLevel id="_N4072____VL" name="N4072   _VL" nominalV="400.0" topologyKind="BUS_BREAKER">
            <iidm:busBreakerTopology>
                <iidm:bus id="_N4072____TN" v="383.9649963378906" angle="-1.0584160089492798"/>
            </iidm:busBreakerTopology>
            <iidm:load id="_N4072____EC" name="N4072   " loadType="UNDEFINED" p0="2000.0" q0="500.0" bus="_N4072____TN" connectableBus="_N4072____TN" p="2000.0" q="500.0"/>
        </iidm:voltageLevel>
        <iidm:twoWindingsTransformer id="_NG20____-N4072___-1_PT" name="NG20    -N4072   -1" r="0.0" x="5.327999591827393" g="0.0" b="0.0" ratedU1="15.0" ratedU2="380.9599914550781" bus1="_NG20_____TN" connectableBus1="_NG20_____TN" voltageLevelId1="_NG20_____VL" bus2="_N4072____TN" connectableBus2="_N4072____TN" voltageLevelId2="_N4072____VL">
            <iidm:currentLimits1 permanentLimit="38490.0"/>
            <iidm:currentLimits2 permanentLimit="1443.3800048828125"/>
        </iidm:twoWindingsTransformer>
    </iidm:substation>
    <iidm:substation id="_NG2______SS" name="NG2     _SS" country="FR" geographicalTags="_SGR_01">
        <iidm:voltageLevel id="_NG2______VL" name="NG2     _VL" nominalV="15.0" topologyKind="BUS_BREAKER">
            <iidm:busBreakerTopology>
                <iidm:bus id="_NG2______TN" v="15.84749984741211" angle="8.6207275390625"/>
            </iidm:busBreakerTopology>
            <iidm:generator id="_G2_______SM" name="G2      " energySource="OTHER" minP="-9999.990234375" maxP="9999.990234375" voltageRegulatorOn="true" targetP="300.0" targetV="15.84749984741211" targetQ="251.48300170898438" bus="_NG2______TN" connectableBus="_NG2______TN" p="-300.0" q="-251.48300170898438">
                <iidm:minMaxReactiveLimits minQ="-9999.990234375" maxQ="9999.990234375"/>
            </iidm:generator>
        </iidm:voltageLevel>
        <iidm:voltageLevel id="_N1013____VL" name="N1013   _VL" nominalV="130.0" topologyKind="BUS_BREAKER">
            <iidm:busBreakerTopology>
                <iidm:bus id="_N1013____TN" v="129.93699645996094" angle="4.547952175140381"/>
            </iidm:busBreakerTopology>
            <iidm:load id="_N1013____EC" name="N1013   " loadType="UNDEFINED" p0="100.0" q0="40.0" bus="_N1013____TN" connectableBus="_N1013____TN" p="100.0" q="40.0"/>
        </iidm:voltageLevel>
        <iidm:twoWindingsTransformer id="_NG2_____-N1013___-1_PT" name="NG2     -N1013   -1" r="0.0" x="4.224999904632568" g="0.0" b="0.0" ratedU1="15.0" ratedU2="130.0" bus1="_NG2______TN" connectableBus1="_NG2______TN" voltageLevelId1="_NG2______VL" bus2="_N1013____TN" connectableBus2="_N1013____TN" voltageLevelId2="_N1013____VL">
            <iidm:currentLimits1 permanentLimit="38490.0"/>
            <iidm:currentLimits2 permanentLimit="4441.16015625"/>
        </iidm:twoWindingsTransformer>
    </iidm:substation>
    <iidm:substation id="_NG3______SS" name="NG3     _SS" country="FR" geographicalTags="_SGR_01">
        <iidm:voltageLevel id="_NG3______VL" name="NG3     _VL" nominalV="15.0" topologyKind="BUS_BREAKER">
            <iidm:busBreakerTopology>
                <iidm:bus id="_NG3______TN" v="15.892499923706055" angle="13.968607902526855"/>
            </iidm:busBreakerTopology>
            <iidm:generator id="_G3_______SM" name="G3      " energySource="OTHER" minP="-9999.990234375" maxP="9999.990234375" voltageRegulatorOn="true" targetP="550.0" targetV="15.892499923706055" targetQ="227.73500061035156" bus="_NG3______TN" connectableBus="_NG3______TN" p="-550.0" q="-227.73500061035156">
                <iidm:minMaxReactiveLimits minQ="-9999.990234375" maxQ="9999.990234375"/>
            </iidm:generator>
        </iidm:voltageLevel>
        <iidm:voltageLevel id="_N1014____VL" name="N1014   _VL" nominalV="130.0" topologyKind="BUS_BREAKER">
            <iidm:busBreakerTopology>
                <iidm:bus id="_N1014____TN" v="132.53799438476562" angle="7.704280853271484"/>
            </iidm:busBreakerTopology>
        </iidm:voltageLevel>
        <iidm:twoWindingsTransformer id="_NG3_____-N1014___-1_PT" name="NG3     -N1014   -1" r="0.0" x="3.6216702461242676" g="0.0" b="0.0" ratedU1="15.0" ratedU2="130.0" bus1="_NG3______TN" connectableBus1="_NG3______TN" voltageLevelId1="_NG3______VL" bus2="_N1014____TN" connectableBus2="_N1014____TN" voltageLevelId2="_N1014____VL">
            <iidm:currentLimits1 permanentLimit="38490.0"/>
            <iidm:currentLimits2 permanentLimit="4441.16015625"/>
        </iidm:twoWindingsTransformer>
    </iidm:substation>
    <iidm:substation id="_NG4______SS" name="NG4     _SS" country="FR" geographicalTags="_SGR_01">
        <iidm:voltageLevel id="_NG4______VL" name="NG4     _VL" nominalV="15.0" topologyKind="BUS_BREAKER">
            <iidm:busBreakerTopology>
                <iidm:bus id="_NG4______TN" v="15.508500099182129" angle="14.51465892791748"/>
            </iidm:busBreakerTopology>
            <iidm:generator id="_G4_______SM" name="G4      " energySource="OTHER" minP="-9999.990234375" maxP="9999.990234375" voltageRegulatorOn="true" targetP="400.0" targetV="15.508500099182129" targetQ="208.8249969482422" bus="_NG4______TN" connectableBus="_NG4______TN" p="-400.0" q="-208.8249969482422">
                <iidm:minMaxReactiveLimits minQ="-9999.990234375" maxQ="9999.990234375"/>
            </iidm:generator>
        </iidm:voltageLevel>
        <iidm:voltageLevel id="_N1021____VL" name="N1021   _VL" nominalV="130.0" topologyKind="BUS_BREAKER">
            <iidm:busBreakerTopology>
                <iidm:bus id="_N1021____TN" v="128.4600067138672" angle="8.89749813079834"/>
            </iidm:busBreakerTopology>
        </iidm:voltageLevel>
        <iidm:twoWindingsTransformer id="_NG4_____-N1021___-1_PT" name="NG4     -N1021   -1" r="0.0" x="4.224999904632568" g="0.0" b="0.0" ratedU1="15.0" ratedU2="130.0" bus1="_NG4______TN" connectableBus1="_NG4______TN" voltageLevelId1="_NG4______VL" bus2="_N1021____TN" connectableBus2="_N1021____TN" voltageLevelId2="_N1021____VL">
            <iidm:currentLimits1 permanentLimit="38490.0"/>
            <iidm:currentLimits2 permanentLimit="4441.16015625"/>
        </iidm:twoWindingsTransformer>
    </iidm:substation>
    <iidm:substation id="_NG6______SS" name="NG6     _SS" country="FR" geographicalTags="_SGR_01">
        <iidm:voltageLevel id="_NG6______VL" name="NG6     _VL" nominalV="15.0" topologyKind="BUS_BREAKER">
            <iidm:busBreakerTopology>
                <iidm:bus id="_NG6______TN" v="15.12600040435791" angle="-71.39446258544922"/>
            </iidm:busBreakerTopology>
            <iidm:generator id="_G6_______SM" name="G6      " energySource="OTHER" minP="-9999.990234375" maxP="9999.990234375" voltageRegulatorOn="true" targetP="360.0" targetV="15.12600040435791" targetQ="172.55499267578125" bus="_NG6______TN" connectableBus="_NG6______TN" p="-360.0" q="-172.55499267578125">
                <iidm:minMaxReactiveLimits minQ="-9999.990234375" maxQ="9999.990234375"/>
            </iidm:generator>
        </iidm:voltageLevel>
        <iidm:voltageLevel id="_N1042____VL" name="N1042   _VL" nominalV="130.0" topologyKind="BUS_BREAKER">
            <iidm:busBreakerTopology>
                <iidm:bus id="_N1042____TN" v="117.52200317382812" angle="-80.3396987915039"/>
            </iidm:busBreakerTopology>
            <iidm:load id="_N1042____EC" name="N1042   " loadType="UNDEFINED" p0="330.0" q0="90.0" bus="_N1042____TN" connectableBus="_N1042____TN" p="330.0" q="90.0"/>
        </iidm:voltageLevel>
        <iidm:twoWindingsTransformer id="_NG6_____-N1042___-1_PT" name="NG6     -N1042   -1" r="0.0" x="6.337498664855957" g="0.0" b="0.0" ratedU1="15.0" ratedU2="123.81199645996094" bus1="_NG6______TN" connectableBus1="_NG6______TN" voltageLevelId1="_NG6______VL" bus2="_N1042____TN" connectableBus2="_N1042____TN" voltageLevelId2="_N1042____VL">
            <iidm:currentLimits1 permanentLimit="38490.0"/>
            <iidm:currentLimits2 permanentLimit="4441.16015625"/>
        </iidm:twoWindingsTransformer>
    </iidm:substation>
    <iidm:substation id="_NG7______SS" name="NG7     _SS" country="FR" geographicalTags="_SGR_01">
        <iidm:voltageLevel id="_NG7______VL" name="NG7     _VL" nominalV="15.0" topologyKind="BUS_BREAKER">
            <iidm:busBreakerTopology>
                <iidm:bus id="_NG7______TN" v="15.21150016784668" angle="-80.41766357421875"/>
            </iidm:busBreakerTopology>
            <iidm:generator id="_G7_______SM" name="G7      " energySource="OTHER" minP="-9999.990234375" maxP="9999.990234375" voltageRegulatorOn="true" targetP="180.0" targetV="15.21150016784668" targetQ="134.14300537109375" bus="_NG7______TN" connectableBus="_NG7______TN" p="-180.0" q="-134.14300537109375">
                <iidm:minMaxReactiveLimits minQ="-9999.990234375" maxQ="9999.990234375"/>
            </iidm:generator>
        </iidm:voltageLevel>
        <iidm:voltageLevel id="_N1043____VL" name="N1043   _VL" nominalV="130.0" topologyKind="BUS_BREAKER">
            <iidm:busBreakerTopology>
                <iidm:bus id="_N1043____TN" v="113.4800033569336" angle="-89.6317367553711"/>
            </iidm:busBreakerTopology>
            <iidm:load id="_N1043____EC" name="N1043   " loadType="UNDEFINED" p0="260.0" q0="100.0" bus="_N1043____TN" connectableBus="_N1043____TN" p="260.0" q="100.0"/>
            <iidm:shunt id="_N1043____SC" name="N1043   " bPerSection="0.008875739760696888" maximumSectionCount="1" currentSectionCount="1" voltageRegulatorOn="false" bus="_N1043____TN" connectableBus="_N1043____TN"/>
        </iidm:voltageLevel>
        <iidm:twoWindingsTransformer id="_NG7_____-N1043___-1_PT" name="NG7     -N1043   -1" r="0.0" x="12.674969673156738" g="0.0" b="0.0" ratedU1="15.0" ratedU2="123.81199645996094" bus1="_NG7______TN" connectableBus1="_NG7______TN" voltageLevelId1="_NG7______VL" bus2="_N1043____TN" connectableBus2="_N1043____TN" voltageLevelId2="_N1043____VL">
            <iidm:currentLimits1 permanentLimit="38490.0"/>
            <iidm:currentLimits2 permanentLimit="4441.16015625"/>
        </iidm:twoWindingsTransformer>
    </iidm:substation>
    <iidm:substation id="_NG8______SS" name="NG8     _SS" country="FR" geographicalTags="_SGR_01">
        <iidm:voltageLevel id="_NG8______VL" name="NG8     _VL" nominalV="15.0" topologyKind="BUS_BREAKER">
            <iidm:busBreakerTopology>
                <iidm:bus id="_NG8______TN" v="15.746999740600586" angle="-14.407537460327148"/>
            </iidm:busBreakerTopology>
            <iidm:generator id="_G8_______SM" name="G8      " energySource="OTHER" minP="-9999.990234375" maxP="9999.990234375" voltageRegulatorOn="true" targetP="750.0" targetV="15.746999740600586" targetQ="322.73699951171875" bus="_NG8______TN" connectableBus="_NG8______TN" p="-750.0" q="-322.73699951171875">
                <iidm:minMaxReactiveLimits minQ="-9999.990234375" maxQ="9999.990234375"/>
            </iidm:generator>
        </iidm:voltageLevel>
        <iidm:voltageLevel id="_N2032____VL" name="N2032   _VL" nominalV="220.0" topologyKind="BUS_BREAKER">
            <iidm:busBreakerTopology>
                <iidm:bus id="_N2032____TN" v="209.46400451660156" angle="-22.400848388671875"/>
            </iidm:busBreakerTopology>
            <iidm:load id="_N2032____EC" name="N2032   " loadType="UNDEFINED" p0="200.0" q0="50.0" bus="_N2032____TN" connectableBus="_N2032____TN" p="200.0" q="50.0"/>
        </iidm:voltageLevel>
        <iidm:twoWindingsTransformer id="_NG8_____-N2032___-1_PT" name="NG8     -N2032   -1" r="0.0" x="8.542604446411133" g="0.0" b="0.0" ratedU1="15.0" ratedU2="209.5279998779297" bus1="_NG8______TN" connectableBus1="_NG8______TN" voltageLevelId1="_NG8______VL" bus2="_N2032____TN" connectableBus2="_N2032____TN" voltageLevelId2="_N2032____VL">
            <iidm:currentLimits1 permanentLimit="38490.0"/>
            <iidm:currentLimits2 permanentLimit="2624.320068359375"/>
        </iidm:twoWindingsTransformer>
    </iidm:substation>
    <iidm:line id="_N1011___-N1013___-1_AC" name="N1011   -N1013   -1" r="1.690000057220459" x="11.829999923706055" g1="0.0" b1="4.1420098568778485E-5" g2="0.0" b2="4.1420098568778485E-5" bus1="_N1011____TN" connectableBus1="_N1011____TN" voltageLevelId1="_N1011____VL" bus2="_N1013____TN" connectableBus2="_N1013____TN" voltageLevelId2="_N1013____VL">
        <iidm:currentLimits1 permanentLimit="4441.16015625"/>
    </iidm:line>
    <iidm:line id="_N1011___-N1013___-2_AC" name="N1011   -N1013   -2" r="1.690000057220459" x="11.829999923706055" g1="0.0" b1="4.1420098568778485E-5" g2="0.0" b2="4.1420098568778485E-5" bus1="_N1011____TN" connectableBus1="_N1011____TN" voltageLevelId1="_N1011____VL" bus2="_N1013____TN" connectableBus2="_N1013____TN" voltageLevelId2="_N1013____VL">
        <iidm:currentLimits1 permanentLimit="4441.16015625"/>
    </iidm:line>
    <iidm:line id="_N1012___-N1014___-1_AC" name="N1012   -N1014   -1" r="2.365999937057495" x="15.210000038146973" g1="0.0" b1="5.3254498197929934E-5" g2="0.0" b2="5.3254498197929934E-5" bus1="_N1012____TN" connectableBus1="_N1012____TN" voltageLevelId1="_N1012____VL" bus2="_N1014____TN" connectableBus2="_N1014____TN" voltageLevelId2="_N1014____VL">
        <iidm:currentLimits1 permanentLimit="4441.16015625"/>
    </iidm:line>
    <iidm:line id="_N1012___-N1014___-2_AC" name="N1012   -N1014   -2" r="2.365999937057495" x="15.210000038146973" g1="0.0" b1="5.3254498197929934E-5" g2="0.0" b2="5.3254498197929934E-5" bus1="_N1012____TN" connectableBus1="_N1012____TN" voltageLevelId1="_N1012____VL" bus2="_N1014____TN" connectableBus2="_N1014____TN" voltageLevelId2="_N1014____VL">
        <iidm:currentLimits1 permanentLimit="4441.16015625"/>
    </iidm:line>
    <iidm:line id="_N1013___-N1014___-1_AC" name="N1013   -N1014   -1" r="1.1829999685287476" x="8.449999809265137" g1="0.0" b1="2.9585800803033635E-5" g2="0.0" b2="2.9585800803033635E-5" bus1="_N1013____TN" connectableBus1="_N1013____TN" voltageLevelId1="_N1013____VL" bus2="_N1014____TN" connectableBus2="_N1014____TN" voltageLevelId2="_N1014____VL">
        <iidm:currentLimits1 permanentLimit="4441.16015625"/>
    </iidm:line>
    <iidm:line id="_N1013___-N1014___-2_AC" name="N1013   -N1014   -2" r="1.1829999685287476" x="8.449999809265137" g1="0.0" b1="2.9585800803033635E-5" g2="0.0" b2="2.9585800803033635E-5" bus1="_N1013____TN" connectableBus1="_N1013____TN" voltageLevelId1="_N1013____VL" bus2="_N1014____TN" connectableBus2="_N1014____TN" voltageLevelId2="_N1014____VL">
        <iidm:currentLimits1 permanentLimit="4441.16015625"/>
    </iidm:line>
    <iidm:line id="_N1021___-N1022___-1_AC" name="N1021   -N1022   -1" r="5.070000171661377" x="33.79999923706055" g1="0.0" b1="8.964500011643395E-5" g2="0.0" b2="8.964500011643395E-5" bus1="_N1021____TN" connectableBus1="_N1021____TN" voltageLevelId1="_N1021____VL" bus2="_N1022____TN" connectableBus2="_N1022____TN" voltageLevelId2="_N1022____VL">
        <iidm:currentLimits1 permanentLimit="4441.16015625"/>
    </iidm:line>
    <iidm:line id="_N1021___-N1022___-2_AC" name="N1021   -N1022   -2" r="5.070000171661377" x="33.79999923706055" g1="0.0" b1="8.964500011643395E-5" g2="0.0" b2="8.964500011643395E-5" bus1="_N1021____TN" connectableBus1="_N1021____TN" voltageLevelId1="_N1021____VL" bus2="_N1022____TN" connectableBus2="_N1022____TN" voltageLevelId2="_N1022____VL">
        <iidm:currentLimits1 permanentLimit="4441.16015625"/>
    </iidm:line>
    <iidm:line id="_N1041___-N1043___-1_AC" name="N1041   -N1043   -1" r="1.690000057220459" x="10.140000343322754" g1="0.0" b1="3.5502951504895464E-5" g2="0.0" b2="3.5502951504895464E-5" bus1="_N1041____TN" connectableBus1="_N1041____TN" voltageLevelId1="_N1041____VL" bus2="_N1043____TN" connectableBus2="_N1043____TN" voltageLevelId2="_N1043____VL">
        <iidm:currentLimits1 permanentLimit="4441.16015625"/>
    </iidm:line>
    <iidm:line id="_N1041___-N1043___-2_AC" name="N1041   -N1043   -2" r="1.690000057220459" x="10.140000343322754" g1="0.0" b1="3.5502951504895464E-5" g2="0.0" b2="3.5502951504895464E-5" bus1="_N1041____TN" connectableBus1="_N1041____TN" voltageLevelId1="_N1041____VL" bus2="_N1043____TN" connectableBus2="_N1043____TN" voltageLevelId2="_N1043____VL">
        <iidm:currentLimits1 permanentLimit="4441.16015625"/>
    </iidm:line>
    <iidm:line id="_N1041___-N1045___-1_AC" name="N1041   -N1045   -1" r="2.5350000858306885" x="20.280000686645508" g1="0.0" b1="7.396449655061588E-5" g2="0.0" b2="7.396449655061588E-5" bus1="_N1041____TN" connectableBus1="_N1041____TN" voltageLevelId1="_N1041____VL" bus2="_N1045____TN" connectableBus2="_N1045____TN" voltageLevelId2="_N1045____VL">
        <iidm:currentLimits1 permanentLimit="4441.16015625"/>
    </iidm:line>
    <iidm:line id="_N1041___-N1045___-2_AC" name="N1041   -N1045   -2" r="2.5350000858306885" x="20.280000686645508" g1="0.0" b1="7.396449655061588E-5" g2="0.0" b2="7.396449655061588E-5" bus1="_N1041____TN" connectableBus1="_N1041____TN" voltageLevelId1="_N1041____VL" bus2="_N1045____TN" connectableBus2="_N1045____TN" voltageLevelId2="_N1045____VL">
        <iidm:currentLimits1 permanentLimit="4441.16015625"/>
    </iidm:line>
    <iidm:line id="_N1042___-N1044___-1_AC" name="N1042   -N1044   -1" r="6.421999931335449" x="47.31999969482422" g1="0.0" b1="1.775150012690574E-4" g2="0.0" b2="1.775150012690574E-4" bus1="_N1042____TN" connectableBus1="_N1042____TN" voltageLevelId1="_N1042____VL" bus2="_N1044____TN" connectableBus2="_N1044____TN" voltageLevelId2="_N1044____VL">
        <iidm:currentLimits1 permanentLimit="4441.16015625"/>
    </iidm:line>
    <iidm:line id="_N1042___-N1044___-2_AC" name="N1042   -N1044   -2" r="6.421999931335449" x="47.31999969482422" g1="0.0" b1="1.775150012690574E-4" g2="0.0" b2="1.775150012690574E-4" bus1="_N1042____TN" connectableBus1="_N1042____TN" voltageLevelId1="_N1042____VL" bus2="_N1044____TN" connectableBus2="_N1044____TN" voltageLevelId2="_N1044____VL">
        <iidm:currentLimits1 permanentLimit="4441.16015625"/>
    </iidm:line>
    <iidm:line id="_N1042___-N1045___-1_AC" name="N1042   -N1045   -1" r="8.449999809265137" x="50.70000076293945" g1="0.0" b1="1.775150012690574E-4" g2="0.0" b2="1.775150012690574E-4" bus1="_N1042____TN" connectableBus1="_N1042____TN" voltageLevelId1="_N1042____VL" bus2="_N1045____TN" connectableBus2="_N1045____TN" voltageLevelId2="_N1045____VL">
        <iidm:currentLimits1 permanentLimit="4441.16015625"/>
    </iidm:line>
    <iidm:line id="_N1043___-N1044___-1_AC" name="N1043   -N1044   -1" r="1.690000057220459" x="13.520000457763672" g1="0.0" b1="4.733730020234361E-5" g2="0.0" b2="4.733730020234361E-5" bus1="_N1043____TN" connectableBus1="_N1043____TN" voltageLevelId1="_N1043____VL" bus2="_N1044____TN" connectableBus2="_N1044____TN" voltageLevelId2="_N1044____VL">
        <iidm:currentLimits1 permanentLimit="4441.16015625"/>
    </iidm:line>
    <iidm:line id="_N1043___-N1044___-2_AC" name="N1043   -N1044   -2" r="1.690000057220459" x="13.520000457763672" g1="0.0" b1="4.733730020234361E-5" g2="0.0" b2="4.733730020234361E-5" bus1="_N1043____TN" connectableBus1="_N1043____TN" voltageLevelId1="_N1043____VL" bus2="_N1044____TN" connectableBus2="_N1044____TN" voltageLevelId2="_N1044____VL">
        <iidm:currentLimits1 permanentLimit="4441.16015625"/>
    </iidm:line>
    <iidm:line id="_N2031___-N2032___-1_AC" name="N2031   -N2032   -1" r="5.808000087738037" x="43.560001373291016" g1="0.0" b1="1.570250060467515E-5" g2="0.0" b2="1.570250060467515E-5" bus1="_N2031____TN" connectableBus1="_N2031____TN" voltageLevelId1="_N2031____VL" bus2="_N2032____TN" connectableBus2="_N2032____TN" voltageLevelId2="_N2032____VL">
        <iidm:currentLimits1 permanentLimit="2624.320068359375"/>
    </iidm:line>
    <iidm:line id="_N2031___-N2032___-2_AC" name="N2031   -N2032   -2" r="5.808000087738037" x="43.560001373291016" g1="0.0" b1="1.570250060467515E-5" g2="0.0" b2="1.570250060467515E-5" bus1="_N2031____TN" connectableBus1="_N2031____TN" voltageLevelId1="_N2031____VL" bus2="_N2032____TN" connectableBus2="_N2032____TN" voltageLevelId2="_N2032____VL">
        <iidm:currentLimits1 permanentLimit="2624.320068359375"/>
    </iidm:line>
    <iidm:line id="_N4011___-N4012___-1_AC" name="N4011   -N4012   -1" r="1.600000023841858" x="12.800000190734863" g1="0.0" b1="6.281249807216227E-5" g2="0.0" b2="6.281249807216227E-5" bus1="_N4011____TN" connectableBus1="_N4011____TN" voltageLevelId1="_N4011____VL" bus2="_N4012____TN" connectableBus2="_N4012____TN" voltageLevelId2="_N4012____VL">
        <iidm:currentLimits1 permanentLimit="1443.3800048828125"/>
    </iidm:line>
    <iidm:line id="_N4011___-N4021___-1_AC" name="N4011   -N4021   -1" r="9.600000381469727" x="96.0" g1="0.0" b1="5.624999757856131E-4" g2="0.0" b2="5.624999757856131E-4" bus1="_N4011____TN" connectableBus1="_N4011____TN" voltageLevelId1="_N4011____VL" bus2="_N4021____TN" connectableBus2="_N4021____TN" voltageLevelId2="_N4021____VL">
        <iidm:currentLimits1 permanentLimit="1443.3800048828125"/>
    </iidm:line>
    <iidm:line id="_N4011___-N4022___-1_AC" name="N4011   -N4022   -1" r="6.400000095367432" x="64.0" g1="0.0" b1="3.75375006115064E-4" g2="0.0" b2="3.75375006115064E-4" bus1="_N4011____TN" connectableBus1="_N4011____TN" voltageLevelId1="_N4011____VL" bus2="_N4022____TN" connectableBus2="_N4022____TN" voltageLevelId2="_N4022____VL">
        <iidm:currentLimits1 permanentLimit="1443.3800048828125"/>
    </iidm:line>
    <iidm:line id="_N4011___-N4071___-1_AC" name="N4011   -N4071   -1" r="8.0" x="72.0" g1="0.0" b1="4.3750001350417733E-4" g2="0.0" b2="4.3750001350417733E-4" bus1="_N4011____TN" connectableBus1="_N4011____TN" voltageLevelId1="_N4011____VL" bus2="_N4071____TN" connectableBus2="_N4071____TN" voltageLevelId2="_N4071____VL">
        <iidm:currentLimits1 permanentLimit="1443.3800048828125"/>
    </iidm:line>
    <iidm:line id="_N4012___-N4022___-1_AC" name="N4012   -N4022   -1" r="6.400000095367432" x="56.0" g1="0.0" b1="3.2812499557621777E-4" g2="0.0" b2="3.2812499557621777E-4" bus1="_N4012____TN" connectableBus1="_N4012____TN" voltageLevelId1="_N4012____VL" bus2="_N4022____TN" connectableBus2="_N4022____TN" voltageLevelId2="_N4022____VL">
        <iidm:currentLimits1 permanentLimit="1443.3800048828125"/>
    </iidm:line>
    <iidm:line id="_N4012___-N4071___-1_AC" name="N4012   -N4071   -1" r="8.0" x="80.0" g1="0.0" b1="4.6806249883957207E-4" g2="0.0" b2="4.6806249883957207E-4" bus1="_N4012____TN" connectableBus1="_N4012____TN" voltageLevelId1="_N4012____VL" bus2="_N4071____TN" connectableBus2="_N4071____TN" voltageLevelId2="_N4071____VL">
        <iidm:currentLimits1 permanentLimit="1443.3800048828125"/>
    </iidm:line>
    <iidm:line id="_N4021___-N4032___-1_AC" name="N4021   -N4032   -1" r="6.400000095367432" x="64.0" g1="0.0" b1="3.75375006115064E-4" g2="0.0" b2="3.75375006115064E-4" bus1="_N4021____TN" connectableBus1="_N4021____TN" voltageLevelId1="_N4021____VL" bus2="_N4032____TN" connectableBus2="_N4032____TN" voltageLevelId2="_N4032____VL">
        <iidm:currentLimits1 permanentLimit="1443.3800048828125"/>
    </iidm:line>
...